<?xml version="1.0" encoding="UTF-8"?>

<!-- generated on 2023-08-09 12:10:01 by Eclipse SUMO netedit Version v1_15_0+3072-a493b9138de
-->

<routes xmlns:xsi="http://www.w3.org/2001/XMLSchema-instance" xsi:noNamespaceSchemaLocation="http://sumo.dlr.de/xsd/routes_file.xsd">
    <!-- VTypes -->
    <vType id="bikes" length="1.60" minGap="0.50" vClass="bicycle" color="green" jmIgnoreJunctionFoeProb="1" jmIgnoreFoeProb="1" jmIgnoreFoeSpeed="5"/>
    <vType id="cars" color="red"/>
    <vType id="cbikes" length="1.60" minGap="0.50" vClass="bicycle" color="blue" jmIgnoreJunctionFoeProb="1" jmIgnoreFoeProb="1"  jmIgnoreFoeSpeed="5"/>
    <!-- Vehicles, persons and containers (sorted by depart) -->
    <flow id="bikes_EN" type="bikes" begin="0.00" from="Ein" to="Nout" end="1300.00" number="100"/>
    <flow id="bikes_ES" type="bikes" begin="0.00" from="Ein" to="Sout" end="1300.00" number="100"/>
    <flow id="bikes_EW" type="bikes" begin="0.00" from="Ein" to="Wout" end="1300.00" number="100"/>
    <flow id="bikes_NE" type="bikes" begin="0.00" from="Nin" to="Eout" end="1300.00" number="100"/>
    <flow id="bikes_NS" type="bikes" begin="0.00" from="Nin" to="Sout" end="1300.00" number="100"/>
    <flow id="bikes_NW" type="bikes" begin="0.00" from="Nin" to="Wout" end="1300.00" number="100"/>
    <flow id="bikes_SE" type="bikes" begin="0.00" from="Sin" to="Eout" end="1300.00" number="100"/>
    <flow id="bikes_SN" type="bikes" begin="0.00" from="Sin" to="Nout" end="1300.00" number="100"/>
    <flow id="bikes_SW" type="bikes" begin="0.00" from="Sin" to="Wout" end="1300.00" number="100"/>
    <flow id="bikes_WE" type="bikes" begin="0.00" from="Win" to="Eout" end="1300.00" number="100"/>
    <flow id="bikes_WN" type="bikes" begin="0.00" from="Win" to="Nout" end="1300.00" number="100"/>
    <flow id="bikes_WS" type="bikes" begin="0.00" from="Win" to="Sout" end="1300.00" number="100"/>
    <flow id="cars_EN" type="cars" begin="0.00" from="Ein" to="Nout" end="1300.00" number="250"/>
    <flow id="cars_ES" type="cars" begin="0.00" from="Ein" to="Sout" end="1300.00" number="250"/>
    <flow id="cars_EW" type="cars" begin="0.00" from="Ein" to="Wout" end="1300.00" number="250"/>
    <flow id="cars_NE" type="cars" begin="0.00" from="Nin" to="Eout" end="1300.00" number="250"/>
    <flow id="cars_NS" type="cars" begin="0.00" from="Nin" to="Sout" end="1300.00" number="250"/>
    <flow id="cars_NW" type="cars" begin="0.00" from="Nin" to="Wout" end="1300.00" number="250"/>
    <flow id="cars_SE" type="cars" begin="0.00" from="Sin" to="Eout" end="1300.00" number="250"/>
    <flow id="cars_SN" type="cars" begin="0.00" from="Sin" to="Nout" end="1300.00" number="250"/>
    <flow id="cars_SW" type="cars" begin="0.00" from="Sin" to="Wout" end="1300.00" number="250"/>
    <flow id="cars_WE" type="cars" begin="0.00" from="Win" to="Eout" end="1300.00" number="250"/>
    <flow id="cars_WN" type="cars" begin="0.00" from="Win" to="Nout" end="1300.00" number="250"/>
    <flow id="cars_WS" type="cars" begin="0.00" from="Win" to="Sout" end="1300.00" number="250"/>
    <flow id="cbikes_EN" type="cbikes" begin="0.00" from="Ein" to="Nout" end="1300.00" number="25"/>
    <flow id="cbikes_ES" type="cbikes" begin="0.00" from="Ein" to="Sout" end="1300.00" number="25"/>
    <flow id="cbikes_EW" type="cbikes" begin="0.00" from="Ein" to="Wout" end="1300.00" number="25"/>
    <flow id="cbikes_NE" type="cbikes" begin="0.00" from="Nin" to="Eout" end="1300.00" number="25"/>
    <flow id="cbikes_NS" type="cbikes" begin="0.00" from="Nin" to="Sout" end="1300.00" number="25"/>
    <flow id="cbikes_NW" type="cbikes" begin="0.00" from="Nin" to="Wout" end="1300.00" number="25"/>
    <flow id="cbikes_SE" type="cbikes" begin="0.00" from="Sin" to="Eout" end="1300.00" number="25"/>
    <flow id="cbikes_SN" type="cbikes" begin="0.00" from="Sin" to="Nout" end="1300.00" number="25"/>
    <flow id="cbikes_SW" type="cbikes" begin="0.00" from="Sin" to="Wout" end="1300.00" number="25"/>
    <flow id="cbikes_WE" type="cbikes" begin="0.00" from="Win" to="Eout" end="1300.00" number="25"/>
    <flow id="cbikes_WN" type="cbikes" begin="0.00" from="Win" to="Nout" end="1300.00" number="25"/>
    <flow id="cbikes_WS" type="cbikes" begin="0.00" from="Win" to="Sout" end="1300.00" number="25"/>
    <flow id="bikes_EN_2" type="bikes" begin="0.00" from="Ein" to="Nout" end="1300.00" number="100"/>
    <flow id="bikes_ES_2" type="bikes" begin="0.00" from="Ein" to="Sout" end="1300.00" number="100"/>
    <flow id="bikes_EW_2" type="bikes" begin="0.00" from="Ein" to="Wout" end="1300.00" number="100"/>
    <flow id="bikes_NE_2" type="bikes" begin="0.00" from="Nin" to="Eout" end="1300.00" number="100"/>
    <flow id="bikes_NS_2" type="bikes" begin="0.00" from="Nin" to="Sout" end="1300.00" number="100"/>
    <flow id="bikes_NW_2" type="bikes" begin="0.00" from="Nin" to="Wout" end="1300.00" number="100"/>
    <flow id="bikes_SE_2" type="bikes" begin="0.00" from="Sin" to="Eout" end="1300.00" number="100"/>
    <flow id="bikes_SN_2" type="bikes" begin="0.00" from="Sin" to="Nout" end="1300.00" number="100"/>
    <flow id="bikes_SW_2" type="bikes" begin="0.00" from="Sin" to="Wout" end="1300.00" number="100"/>
    <flow id="bikes_WE_2" type="bikes" begin="0.00" from="Win" to="Eout" end="1300.00" number="100"/>
    <flow id="bikes_WN_2" type="bikes" begin="0.00" from="Win" to="Nout" end="1300.00" number="100"/>
    <flow id="bikes_WS_2" type="bikes" begin="0.00" from="Win" to="Sout" end="1300.00" number="100"/>
    <flow id="cars_EN_2" type="cars" begin="1300.00" from="Ein" to="Nout" end="3600.00" number="250"/>
    <flow id="cars_ES_2" type="cars" begin="1300.00" from="Ein" to="Sout" end="3600.00" number="250"/>
    <flow id="cars_EW_2" type="cars" begin="1300.00" from="Ein" to="Wout" end="3600.00" number="250"/>
    <flow id="cars_NE_2" type="cars" begin="1300.00" from="Nin" to="Eout" end="3600.00" number="250"/>
    <flow id="cars_NS_2" type="cars" begin="1300.00" from="Nin" to="Sout" end="3600.00" number="250"/>
    <flow id="cars_NW_2" type="cars" begin="1300.00" from="Nin" to="Wout" end="3600.00" number="250"/>
    <flow id="cars_SE_2" type="cars" begin="1300.00" from="Sin" to="Eout" end="3600.00" number="250"/>
    <flow id="cars_SN_2" type="cars" begin="1300.00" from="Sin" to="Nout" end="3600.00" number="250"/>
    <flow id="cars_SW_2" type="cars" begin="1300.00" from="Sin" to="Wout" end="3600.00" number="250"/>
    <flow id="cars_WE_2" type="cars" begin="1300.00" from="Win" to="Eout" end="3600.00" number="250"/>
    <flow id="cars_WN_2" type="cars" begin="1300.00" from="Win" to="Nout" end="3600.00" number="250"/>
    <flow id="cars_WS_2" type="cars" begin="1300.00" from="Win" to="Sout" end="3600.00" number="250"/>
    <flow id="cbikes_EN_2" type="cbikes" begin="1300.00" from="Ein" to="Nout" end="3600.00" number="25"/>
    <flow id="cbikes_ES_2" type="cbikes" begin="1300.00" from="Ein" to="Sout" end="3600.00" number="25"/>
    <flow id="cbikes_EW_2" type="cbikes" begin="1300.00" from="Ein" to="Wout" end="3600.00" number="25"/>
    <flow id="cbikes_NE_2" type="cbikes" begin="1300.00" from="Nin" to="Eout" end="3600.00" number="25"/>
    <flow id="cbikes_NS_2" type="cbikes" begin="1300.00" from="Nin" to="Sout" end="3600.00" number="25"/>
    <flow id="cbikes_NW_2" type="cbikes" begin="1300.00" from="Nin" to="Wout" end="3600.00" number="25"/>
    <flow id="cbikes_SE_2" type="cbikes" begin="1300.00" from="Sin" to="Eout" end="3600.00" number="25"/>
    <flow id="cbikes_SN_2" type="cbikes" begin="1300.00" from="Sin" to="Nout" end="3600.00" number="25"/>
    <flow id="cbikes_SW_2" type="cbikes" begin="1300.00" from="Sin" to="Wout" end="3600.00" number="25"/>
    <flow id="cbikes_WE_2" type="cbikes" begin="1300.00" from="Win" to="Eout" end="3600.00" number="25"/>
    <flow id="cbikes_WN_2" type="cbikes" begin="1300.00" from="Win" to="Nout" end="3600.00" number="25"/>
    <flow id="cbikes_WS_2" type="cbikes" begin="1300.00" from="Win" to="Sout" end="3600.00" number="25"/>
</routes>
