<?xml version="1.0" encoding="UTF-8"?>

<!-- generated on 2023-09-07 10:11:21 by Eclipse SUMO netedit Version 1.18.0
<configuration xmlns:xsi="http://www.w3.org/2001/XMLSchema-instance" xsi:noNamespaceSchemaLocation="http://sumo.dlr.de/xsd/neteditConfiguration.xsd">

    <input>
        <sumocfg-file value="/Users/mrinaldi/surfdrive/Work/Delft/Research/Projects/DIT4TRAM/WP2/codebase/dit4tram-bordeaux/simulation/bordeaux/bordeaux.4.sumocfg"/>
        <additional-files value="/Users/mrinaldi/surfdrive/Work/Delft/Research/Projects/DIT4TRAM/WP2/codebase/dit4tram-bordeaux/simulation/bordeaux/bordeaux.add.xml"/>
        <route-files value="/Users/mrinaldi/surfdrive/Work/Delft/Research/Projects/DIT4TRAM/WP2/codebase/dit4tram-bordeaux/simulation/bordeaux/bordeaux.4.rou.xml"/>
        <sumo-net-file value="/Users/mrinaldi/surfdrive/Work/Delft/Research/Projects/DIT4TRAM/WP2/codebase/dit4tram-bordeaux/simulation/bordeaux/bordeaux.net.xml"/>
    </input>

    <output>
        <output-file value="/Users/mrinaldi/surfdrive/Work/Delft/Research/Projects/DIT4TRAM/WP2/codebase/dit4tram-bordeaux/simulation/bordeaux/bordeaux.net.xml"/>
    </output>

    <processing>
        <geometry.min-radius.fix.railways value="false"/>
        <geometry.max-grade.fix value="false"/>
        <offset.disable-normalization value="true"/>
        <lefthand value="0"/>
    </processing>

    <junctions>
        <no-internal-links value="false"/>
        <no-turnarounds value="true"/>
        <junctions.corner-detail value="5"/>
        <junctions.limit-turn-speed value="5.50"/>
        <rectangular-lane-cut value="0"/>
    </junctions>

    <pedestrian>
        <walkingareas value="0"/>
    </pedestrian>

</configuration>
-->

<net version="1.16" junctionCornerDetail="5" limitTurnSpeed="5.50" xmlns:xsi="http://www.w3.org/2001/XMLSchema-instance" xsi:noNamespaceSchemaLocation="http://sumo.dlr.de/xsd/net_file.xsd">

    <location netOffset="0.00,0.00" convBoundary="-257.43,-244.12,405.05,363.98" origBoundary="-10000000000.00,-10000000000.00,10000000000.00,10000000000.00" projParameter="!"/>

    <type id="edgeType_0" numLanes="5"/>

    <edge id=":J0_0" function="internal">
        <lane id=":J0_0_0" index="0" allow="bicycle" speed="7.53" length="12.11" width="2.00" shape="89.22,71.28 85.46,71.80 82.76,73.05 81.11,75.02 80.53,77.73"/>
    </edge>
    <edge id=":J0_1" function="internal">
        <lane id=":J0_1_0" index="0" allow="bicycle" speed="13.89" length="39.75" width="2.00" shape="89.22,71.28 77.52,70.74 69.61,68.86 61.68,66.86 49.98,65.94"/>
    </edge>
    <edge id=":J0_2" function="internal">
        <lane id=":J0_2_0" index="0" allow="bicycle" speed="13.56" length="22.42" width="2.00" shape="89.13,68.69 80.91,64.94 71.52,55.72 71.39,55.54"/>
    </edge>
    <edge id=":J0_3" function="internal">
        <lane id=":J0_3_0" index="0" disallow="pedestrian bicycle" speed="9.35" length="8.32" shape="89.00,65.04 84.24,65.97 81.40,67.97"/>
    </edge>
    <edge id=":J0_4" function="internal">
        <lane id=":J0_4_0" index="0" disallow="pedestrian bicycle" speed="13.89" length="38.88" shape="88.88,61.84 49.98,63.34"/>
        <lane id=":J0_4_1" index="1" disallow="pedestrian bicycle" speed="13.89" length="38.88" shape="88.77,58.64 49.97,60.14"/>
    </edge>
    <edge id=":J0_6" function="internal">
        <lane id=":J0_6_0" index="0" disallow="pedestrian bicycle" speed="11.81" length="8.44" shape="88.77,58.64 81.52,56.49 80.83,55.95"/>
    </edge>
    <edge id=":J0_30" function="internal">
        <lane id=":J0_30_0" index="0" allow="bicycle" speed="13.56" length="22.57" width="2.00" shape="71.39,55.54 63.84,44.78 60.77,35.86"/>
    </edge>
    <edge id=":J0_31" function="internal">
        <lane id=":J0_31_0" index="0" disallow="pedestrian bicycle" speed="9.35" length="10.60" shape="81.40,67.97 80.81,68.39 78.71,72.29 77.93,77.68"/>
    </edge>
    <edge id=":J0_32" function="internal">
        <lane id=":J0_32_0" index="0" disallow="pedestrian bicycle" speed="11.81" length="25.28" shape="80.83,55.95 74.24,50.79 68.68,43.35 66.57,36.03"/>
    </edge>
    <edge id=":J0_7" function="internal">
        <lane id=":J0_7_0" index="0" allow="bicycle" speed="7.88" length="9.90" width="2.00" shape="82.51,36.48 82.75,41.73 83.81,45.45 84.32,46.04"/>
    </edge>
    <edge id=":J0_8" function="internal">
        <lane id=":J0_8_0" index="0" allow="bicycle" speed="13.89" length="41.30" width="2.00" shape="82.51,36.48 80.53,77.73"/>
    </edge>
    <edge id=":J0_9" function="internal">
        <lane id=":J0_9_0" index="0" allow="bicycle" speed="13.85" length="24.18" width="2.00" shape="80.51,36.42 76.88,44.78 68.49,54.51 66.76,55.90"/>
    </edge>
    <edge id=":J0_10" function="internal">
        <lane id=":J0_10_0" index="0" disallow="pedestrian bicycle" speed="13.89" length="41.33" shape="77.91,36.35 77.93,77.68"/>
    </edge>
    <edge id=":J0_11" function="internal">
        <lane id=":J0_11_0" index="0" disallow="pedestrian bicycle" speed="9.45" length="8.80" shape="77.91,36.35 78.41,43.12 79.16,44.99"/>
    </edge>
    <edge id=":J0_12" function="internal">
        <lane id=":J0_12_0" index="0" disallow="pedestrian bicycle" speed="13.89" length="41.36" shape="74.71,36.26 74.73,77.62"/>
    </edge>
    <edge id=":J0_13" function="internal">
        <lane id=":J0_13_0" index="0" disallow="pedestrian bicycle" speed="12.18" length="9.77" shape="70.76,36.15 68.60,43.64 67.51,45.29"/>
    </edge>
    <edge id=":J0_33" function="internal">
        <lane id=":J0_33_0" index="0" allow="bicycle" speed="7.88" length="4.89" width="2.00" shape="84.32,46.04 85.69,47.64 88.40,48.30"/>
    </edge>
    <edge id=":J0_34" function="internal">
        <lane id=":J0_34_0" index="0" allow="bicycle" speed="13.85" length="19.77" width="2.00" shape="66.76,55.90 58.47,62.57 49.98,65.94"/>
    </edge>
    <edge id=":J0_35" function="internal">
        <lane id=":J0_35_0" index="0" disallow="pedestrian bicycle" speed="9.45" length="12.39" shape="79.16,44.99 80.34,47.91 83.71,50.70 88.51,51.50"/>
    </edge>
    <edge id=":J0_36" function="internal">
        <lane id=":J0_36_0" index="0" disallow="pedestrian bicycle" speed="12.18" length="23.72" shape="67.51,45.29 63.44,51.47 56.75,57.63 49.97,60.14"/>
    </edge>
    <edge id=":J0_14" function="internal">
        <lane id=":J0_14_0" index="0" allow="bicycle" speed="8.06" length="9.59" width="2.00" shape="49.95,42.39 54.61,41.98 57.97,40.75 58.91,39.81"/>
    </edge>
    <edge id=":J0_15" function="internal">
        <lane id=":J0_15_0" index="0" allow="bicycle" speed="13.89" length="39.09" shape="49.95,42.39 61.43,43.40 69.18,45.59 76.93,47.66 88.40,48.30"/>
    </edge>
    <edge id=":J0_16" function="internal">
        <lane id=":J0_16_0" index="0" allow="bicycle" speed="13.89" length="22.15" width="2.00" shape="49.95,45.59 58.50,49.36 68.09,57.84"/>
    </edge>
    <edge id=":J0_17" function="internal">
        <lane id=":J0_17_0" index="0" disallow="pedestrian bicycle" speed="9.91" length="8.86" shape="49.96,49.79 55.68,48.92 58.28,47.28"/>
    </edge>
    <edge id=":J0_18" function="internal">
        <lane id=":J0_18_0" index="0" disallow="pedestrian bicycle" speed="13.89" length="38.65" shape="49.96,49.79 88.51,51.50"/>
        <lane id=":J0_18_1" index="1" disallow="pedestrian bicycle" speed="13.89" length="38.65" shape="49.96,52.99 88.63,54.69"/>
    </edge>
    <edge id=":J0_20" function="internal">
        <lane id=":J0_20_0" index="0" disallow="pedestrian bicycle" speed="12.88" length="12.91" shape="49.96,52.99 58.11,55.60 61.69,58.09"/>
        <lane id=":J0_20_1" index="1" disallow="pedestrian bicycle" speed="12.15" length="7.73" shape="49.97,56.19 57.42,58.25"/>
    </edge>
    <edge id=":J0_37" function="internal">
        <lane id=":J0_37_0" index="0" allow="bicycle" speed="8.06" length="4.51" width="2.00" shape="58.91,39.81 60.02,38.71 60.77,35.86"/>
    </edge>
    <edge id=":J0_38" function="internal">
        <lane id=":J0_38_0" index="0" allow="bicycle" speed="13.89" length="23.73" width="2.00" shape="68.09,57.84 68.64,58.32 77.07,68.96 80.53,77.73"/>
    </edge>
    <edge id=":J0_39" function="internal">
        <lane id=":J0_39_0" index="0" disallow="pedestrian bicycle" speed="9.91" length="12.97" shape="58.28,47.28 59.82,46.32 62.38,41.99 63.37,35.94"/>
    </edge>
    <edge id=":J0_40" function="internal">
        <lane id=":J0_40_0" index="0" disallow="pedestrian bicycle" speed="12.88" length="26.11" shape="61.69,58.09 67.34,62.01 74.88,70.09 77.93,77.68"/>
    </edge>
    <edge id=":J0_41" function="internal">
        <lane id=":J0_41_0" index="0" disallow="pedestrian bicycle" speed="12.15" length="26.88" shape="57.42,58.25 57.61,58.30 65.74,63.62 72.18,70.58 74.73,77.62"/>
    </edge>
    <edge id=":J0_22" function="internal">
        <lane id=":J0_22_0" index="0" allow="bicycle" speed="7.85" length="9.41" width="2.00" shape="55.83,77.27 55.55,72.31 54.48,68.77 53.99,68.21"/>
    </edge>
    <edge id=":J0_23" function="internal">
        <lane id=":J0_23_0" index="0" allow="bicycle" speed="13.89" length="41.76" width="2.00" shape="55.83,77.27 56.69,64.94 58.22,56.56 59.80,48.19 60.77,35.86"/>
    </edge>
    <edge id=":J0_24" function="internal">
        <lane id=":J0_24_0" index="0" allow="bicycle" speed="13.89" length="30.35" width="2.00" shape="57.83,77.31 59.94,65.02 65.74,56.08 71.98,52.42"/>
    </edge>
    <edge id=":J0_25" function="internal">
        <lane id=":J0_25_0" index="0" disallow="pedestrian bicycle" speed="9.32" length="7.63" shape="60.43,77.35 59.88,71.22 59.29,69.87"/>
    </edge>
    <edge id=":J0_26" function="internal">
        <lane id=":J0_26_0" index="0" disallow="pedestrian bicycle" speed="13.89" length="41.51" shape="60.43,77.35 63.37,35.94"/>
        <lane id=":J0_26_1" index="1" disallow="pedestrian bicycle" speed="13.89" length="41.51" shape="63.63,77.41 66.57,36.03"/>
    </edge>
    <edge id=":J0_28" function="internal">
        <lane id=":J0_28_0" index="0" disallow="pedestrian bicycle" speed="12.99" length="18.21" shape="67.58,77.49 69.07,66.39 72.18,60.10"/>
        <lane id=":J0_28_1" index="1" disallow="pedestrian bicycle" speed="12.13" length="10.16" shape="70.78,77.55 72.05,67.78 72.19,67.50"/>
    </edge>
    <edge id=":J0_42" function="internal">
        <lane id=":J0_42_0" index="0" allow="bicycle" speed="7.85" length="4.81" width="2.00" shape="53.99,68.21 52.62,66.64 49.98,65.94"/>
    </edge>
    <edge id=":J0_43" function="internal">
        <lane id=":J0_43_0" index="0" allow="bicycle" speed="13.89" length="17.13" width="2.00" shape="71.98,52.42 75.22,50.51 88.40,48.30"/>
    </edge>
    <edge id=":J0_44" function="internal">
        <lane id=":J0_44_0" index="0" disallow="pedestrian bicycle" speed="9.32" length="12.28" shape="59.29,69.87 57.95,66.83 54.65,64.21 49.98,63.34"/>
    </edge>
    <edge id=":J0_45" function="internal">
        <lane id=":J0_45_0" index="0" disallow="pedestrian bicycle" speed="12.99" length="19.29" shape="72.18,60.10 73.05,58.36 79.53,53.39 88.51,51.50"/>
    </edge>
    <edge id=":J0_46" function="internal">
        <lane id=":J0_46_0" index="0" disallow="pedestrian bicycle" speed="12.13" length="22.39" shape="72.19,67.50 75.45,60.72 80.98,56.36 88.63,54.69"/>
    </edge>
    <edge id=":J0_c0" function="crossing" crossingEdges="-E5">
        <lane id=":J0_c0_0" index="0" allow="pedestrian" speed="2.78" length="15.55" width="4.00" shape="86.71,57.11 87.27,72.65"/>
    </edge>
    <edge id=":J0_c1" function="crossing" crossingEdges="E5">
        <lane id=":J0_c1_0" index="0" allow="pedestrian" speed="2.78" length="9.60" width="4.00" shape="86.34,46.77 86.69,56.36"/>
    </edge>
    <edge id=":J0_c2" function="crossing" crossingEdges="-E2">
        <lane id=":J0_c2_0" index="0" allow="pedestrian" speed="2.78" length="14.35" width="4.00" shape="69.11,38.10 83.45,38.51"/>
    </edge>
    <edge id=":J0_c3" function="crossing" crossingEdges="E2">
        <lane id=":J0_c3_0" index="0" allow="pedestrian" speed="2.78" length="8.40" width="4.00" shape="59.71,37.83 68.11,38.07"/>
    </edge>
    <edge id=":J0_c4" function="crossing" crossingEdges="E10">
        <lane id=":J0_c4_0" index="0" allow="pedestrian" speed="2.78" length="17.00" width="4.00" shape="51.97,57.79 51.94,40.79"/>
    </edge>
    <edge id=":J0_c5" function="crossing" crossingEdges="-E10">
        <lane id=":J0_c5_0" index="0" allow="pedestrian" speed="2.78" length="8.40" width="4.00" shape="51.99,66.94 51.97,58.54"/>
    </edge>
    <edge id=":J0_w0" function="walkingarea">
        <lane id=":J0_w0_0" index="0" allow="pedestrian" speed="2.78" length="5.72" width="4.00" shape="81.53,77.75 83.53,77.79 89.33,74.58 89.26,72.58 86.93,72.80 85.01,73.28 83.51,74.01 82.43,75.00 81.77,76.25"/>
    </edge>
    <edge id=":J0_w1" function="walkingarea">
        <lane id=":J0_w1_0" index="0" allow="pedestrian" speed="2.78" length="7.04" width="4.00" shape="88.34,46.70 88.27,44.70 85.51,36.57 83.51,36.51 83.56,39.67 83.92,42.25 84.57,44.24 85.53,45.65 86.78,46.47"/>
    </edge>
    <edge id=":J0_w2" function="walkingarea">
        <lane id=":J0_w2_0" index="0" allow="pedestrian" speed="2.78" length="6.81" width="4.00" shape="59.77,35.83 57.77,35.78 49.94,38.79 49.94,40.79 52.91,40.65 55.34,40.23 57.24,39.54 58.61,38.58 59.46,37.34"/>
    </edge>
    <edge id=":J0_w3" function="walkingarea">
        <lane id=":J0_w3_0" index="0" allow="pedestrian" speed="2.78" length="7.58" width="4.00" shape="49.99,66.94 49.99,68.94 52.83,77.21 54.83,77.25 54.75,74.10 54.38,71.52 53.72,69.51 52.76,68.08 51.52,67.22"/>
    </edge>
    <edge id=":J0_w4" function="walkingarea">
        <lane id=":J0_w4_0" index="0" allow="pedestrian" speed="2.78" length="0.75" width="4.00" shape="84.69,56.44 88.68,56.29 88.71,57.04 84.71,57.19"/>
    </edge>
    <edge id=":J0_w5" function="walkingarea">
        <lane id=":J0_w5_0" index="0" allow="pedestrian" speed="2.78" length="1.00" width="4.00" shape="68.05,40.07 68.16,36.07 69.16,36.10 69.05,40.10"/>
    </edge>
    <edge id=":J0_w6" function="walkingarea">
        <lane id=":J0_w6_0" index="0" allow="pedestrian" speed="2.78" length="0.75" width="4.00" shape="53.97,58.53 49.97,58.54 49.97,57.79 53.97,57.78"/>
    </edge>
    <edge id=":J10_w0" function="walkingarea">
        <lane id=":J10_w0_0" index="0" allow="pedestrian" speed="2.78" length="22.25" width="2.50" shape="49.68,363.69 47.68,363.64 72.18,364.25 69.68,364.19"/>
    </edge>
    <edge id=":J11_0" function="internal">
        <lane id=":J11_0_0" index="0" allow="bicycle" speed="13.89" length="5.93" width="2.00" shape="33.34,65.97 27.44,66.00"/>
        <lane id=":J11_0_1" index="1" disallow="pedestrian bicycle" speed="13.89" length="5.93" shape="33.34,63.37 27.41,63.40"/>
        <lane id=":J11_0_2" index="2" disallow="pedestrian bicycle" speed="13.89" length="5.93" shape="33.33,60.17 27.38,60.20"/>
    </edge>
    <edge id=":J11_3" function="internal">
        <lane id=":J11_3_0" index="0" allow="bicycle" speed="13.89" length="6.51" width="2.00" shape="27.26,47.25 29.29,46.48 30.28,44.82 31.27,43.17 33.31,42.42"/>
        <lane id=":J11_3_1" index="1" allow="bicycle" speed="13.89" length="6.51" width="2.00" shape="27.26,47.25 29.08,46.98 30.28,46.42 31.48,45.87 33.31,45.62"/>
        <lane id=":J11_3_2" index="2" disallow="pedestrian bicycle" speed="13.89" length="6.51" shape="27.28,49.85 33.32,49.82"/>
        <lane id=":J11_3_3" index="3" disallow="pedestrian bicycle" speed="13.89" length="6.51" shape="27.31,53.05 33.32,53.02"/>
        <lane id=":J11_3_4" index="4" disallow="pedestrian bicycle" speed="13.89" length="6.51" shape="27.34,56.25 33.33,56.22"/>
    </edge>
    <edge id=":J11_w0" function="walkingarea">
        <lane id=":J11_w0_0" index="0" allow="pedestrian" speed="2.78" length="5.89" width="2.00" shape="27.45,67.00 27.46,69.00 33.35,68.97 33.34,66.97"/>
    </edge>
    <edge id=":J11_w1" function="walkingarea">
        <lane id=":J11_w1_0" index="0" allow="pedestrian" speed="2.78" length="7.52" width="4.00" shape="33.30,40.82 33.30,38.82 27.21,42.25 27.25,46.25 28.82,45.83 29.72,44.82 30.27,43.52 30.83,42.22 31.72,41.22"/>
    </edge>
    <edge id=":J12_0" function="internal">
        <lane id=":J12_0_0" index="0" allow="pedestrian" speed="13.89" length="19.93" width="2.00" shape="82.95,-60.56 82.67,-40.68"/>
        <lane id=":J12_0_1" index="1" allow="bicycle" speed="13.89" length="19.93" width="2.00" shape="80.95,-60.60 80.67,-40.70"/>
        <lane id=":J12_0_2" index="2" disallow="pedestrian bicycle" speed="13.89" length="19.93" shape="78.35,-60.65 78.07,-40.72"/>
        <lane id=":J12_0_3" index="3" disallow="pedestrian bicycle" speed="13.89" length="19.93" shape="75.15,-60.71 74.87,-40.75"/>
        <lane id=":J12_0_4" index="4" disallow="all" speed="13.89" length="19.93" shape="71.95,-60.77 71.67,-40.78"/>
    </edge>
    <edge id=":J12_5" function="internal">
        <lane id=":J12_5_0" index="0" allow="pedestrian" speed="13.89" length="20.08" width="2.50" shape="59.92,-40.89 60.70,-60.99"/>
        <lane id=":J12_5_1" index="1" allow="bicycle" speed="13.89" length="20.08" width="2.00" shape="61.92,-40.87 62.95,-60.94"/>
        <lane id=":J12_5_2" index="2" disallow="pedestrian bicycle" speed="13.89" length="20.08" shape="64.52,-40.85 65.55,-60.89"/>
        <lane id=":J12_5_3" index="3" disallow="pedestrian bicycle" speed="13.89" length="20.08" shape="67.72,-40.82 68.75,-60.83"/>
    </edge>
    <edge id=":J12_w0" function="walkingarea">
        <lane id=":J12_w0_0" index="0" allow="pedestrian" speed="2.78" length="19.88" width="2.00" shape="81.67,-40.69 83.67,-40.67 83.95,-60.54 81.95,-60.58"/>
    </edge>
    <edge id=":J12_w1" function="walkingarea">
        <lane id=":J12_w1_0" index="0" allow="pedestrian" speed="2.78" length="20.11" width="2.50" shape="61.95,-60.96 59.46,-61.01 58.92,-40.90 60.92,-40.88"/>
    </edge>
    <edge id=":J2_0" function="internal">
        <lane id=":J2_0_0" index="0" allow="bicycle" speed="13.89" length="24.04" width="2.00" shape="-51.03,66.75 -75.07,66.19"/>
        <lane id=":J2_0_1" index="1" disallow="pedestrian bicycle" speed="13.89" length="24.04" shape="-51.05,64.15 -75.09,63.59"/>
        <lane id=":J2_0_2" index="2" disallow="pedestrian bicycle" speed="13.89" length="24.04" shape="-51.08,60.95 -75.10,60.39"/>
    </edge>
    <edge id=":J2_3" function="internal">
        <lane id=":J2_3_0" index="0" allow="bicycle" speed="13.89" length="24.05" width="2.00" shape="-75.18,48.19 -51.21,48.00"/>
        <lane id=":J2_3_1" index="1" disallow="pedestrian bicycle" speed="13.89" length="24.05" shape="-75.16,50.79 -51.18,50.60"/>
        <lane id=":J2_3_2" index="2" disallow="pedestrian bicycle" speed="13.89" length="24.05" shape="-75.14,53.99 -51.15,53.80"/>
        <lane id=":J2_3_3" index="3" disallow="pedestrian bicycle" speed="13.89" length="24.05" shape="-75.14,53.99 -67.98,54.45 -63.13,55.51 -58.28,56.57 -51.12,57.00"/>
    </edge>
    <edge id=":J2_w0" function="walkingarea">
        <lane id=":J2_w0_0" index="0" allow="pedestrian" speed="2.78" length="24.05" width="2.50" shape="-75.06,67.19 -75.05,69.69 -51.00,69.75 -51.02,67.75"/>
    </edge>
    <edge id=":J2_w1" function="walkingarea">
        <lane id=":J2_w1_0" index="0" allow="pedestrian" speed="2.78" length="23.96" width="4.00" shape="-51.22,47.00 -51.26,43.01 -75.21,43.19 -75.18,47.19"/>
    </edge>
    <edge id=":J3_0" function="internal">
        <lane id=":J3_0_0" index="0" allow="bicycle" speed="13.89" length="3.37" width="2.00" shape="80.05,25.02 82.74,28.25"/>
        <lane id=":J3_0_1" index="1" allow="bicycle" speed="13.89" length="3.37" width="2.00" shape="80.05,25.02 80.16,25.97 80.41,26.61 80.65,27.24 80.74,28.19"/>
        <lane id=":J3_0_2" index="2" disallow="pedestrian bicycle" speed="13.89" length="3.37" shape="77.45,25.00 77.56,25.93 77.81,26.56 78.05,27.18 78.14,28.12"/>
        <lane id=":J3_0_3" index="3" disallow="pedestrian bicycle" speed="13.89" length="3.37" shape="74.25,24.97 74.36,25.89 74.61,26.50 74.85,27.11 74.95,28.03"/>
        <lane id=":J3_0_4" index="4" disallow="pedestrian bicycle" speed="13.89" length="3.37" shape="71.05,24.94 71.00,27.91"/>
    </edge>
    <edge id=":J3_5" function="internal">
        <lane id=":J3_5_0" index="0" allow="bicycle" speed="13.89" length="2.85" width="2.00" shape="61.00,27.63 61.30,24.85"/>
        <lane id=":J3_5_1" index="1" disallow="pedestrian bicycle" speed="13.89" length="2.85" shape="63.60,27.70 63.90,24.87"/>
        <lane id=":J3_5_2" index="2" disallow="pedestrian bicycle" speed="13.89" length="2.85" shape="66.80,27.79 67.10,24.90"/>
    </edge>
    <edge id=":J3_w0" function="walkingarea">
        <lane id=":J3_w0_0" index="0" allow="pedestrian" speed="2.78" length="4.23" width="2.00" shape="83.74,28.28 85.74,28.33 83.05,25.05 81.05,25.03"/>
    </edge>
    <edge id=":J3_w1" function="walkingarea">
        <lane id=":J3_w1_0" index="0" allow="pedestrian" speed="2.78" length="2.76" width="2.00" shape="60.30,24.84 58.30,24.82 58.00,27.55 60.00,27.60"/>
    </edge>
    <edge id=":J4_w0" function="walkingarea">
        <lane id=":J4_w0_0" index="0" allow="pedestrian" speed="2.78" length="23.25" width="4.00" shape="-257.50,48.26 -257.52,44.26 -257.37,70.76 -257.38,68.26"/>
    </edge>
    <edge id=":J5_w0" function="walkingarea">
        <lane id=":J5_w0_0" index="0" allow="pedestrian" speed="2.78" length="22.25" width="2.50" shape="85.49,-243.90 87.49,-243.86 62.99,-244.33 65.49,-244.28"/>
    </edge>
    <edge id=":J6_0" function="internal">
        <lane id=":J6_0_0" index="0" allow="bicycle" speed="13.89" length="2.85" width="2.60" shape="101.04,67.88 98.81,70.94"/>
        <lane id=":J6_0_1" index="1" allow="bicycle" speed="13.89" length="2.85" width="2.60" shape="101.04,67.88 100.34,67.93 99.88,68.09 99.41,68.25 98.72,68.34"/>
        <lane id=":J6_0_2" index="2" disallow="pedestrian bicycle" speed="13.89" length="2.85" shape="101.10,64.68 98.59,64.70"/>
        <lane id=":J6_0_3" index="3" disallow="pedestrian bicycle" speed="13.89" length="2.85" shape="101.16,61.48 98.47,61.50"/>
        <lane id=":J6_0_4" index="4" disallow="pedestrian bicycle" speed="13.89" length="2.85" shape="101.22,58.28 98.36,58.30"/>
    </edge>
    <edge id=":J6_5" function="internal">
        <lane id=":J6_5_0" index="0" allow="bicycle" speed="13.89" length="3.26" shape="97.99,47.96 101.43,47.93"/>
        <lane id=":J6_5_1" index="1" disallow="pedestrian bicycle" speed="13.89" length="3.26" shape="98.11,51.16 101.36,51.13"/>
        <lane id=":J6_5_2" index="2" disallow="pedestrian bicycle" speed="13.89" length="3.26" shape="98.22,54.35 101.30,54.33"/>
    </edge>
    <edge id=":J6_w0" function="walkingarea">
        <lane id=":J6_w0_0" index="0" allow="pedestrian" speed="2.78" length="3.47" width="2.00" shape="98.86,72.24 98.93,74.24 100.96,71.48 101.00,69.48"/>
    </edge>
    <edge id=":J6_w1" function="walkingarea">
        <lane id=":J6_w1_0" index="0" allow="pedestrian" speed="2.78" length="3.58" width="2.00" shape="101.46,46.33 101.50,44.33 97.86,44.36 97.94,46.36"/>
    </edge>
    <edge id=":J7_0" function="internal">
        <lane id=":J7_0_0" index="0" allow="bicycle" speed="13.89" length="20.09" shape="217.55,70.15 197.54,69.77"/>
        <lane id=":J7_0_1" index="1" disallow="pedestrian bicycle" speed="13.89" length="20.09" shape="217.61,66.95 197.61,66.57"/>
        <lane id=":J7_0_2" index="2" disallow="pedestrian bicycle" speed="13.89" length="20.09" shape="217.67,63.76 197.67,63.37"/>
        <lane id=":J7_0_3" index="3" disallow="pedestrian bicycle" speed="13.89" length="20.09" shape="217.67,63.76 211.71,63.14 207.70,61.97 203.69,60.79 197.73,60.17"/>
    </edge>
    <edge id=":J7_4" function="internal">
        <lane id=":J7_4_0" index="0" allow="bicycle" speed="13.89" length="20.01" shape="197.93,49.83 217.91,50.96"/>
        <lane id=":J7_4_1" index="1" disallow="pedestrian bicycle" speed="13.89" length="20.01" shape="197.87,53.02 217.85,54.16"/>
        <lane id=":J7_4_2" index="2" disallow="pedestrian bicycle" speed="13.89" length="20.01" shape="197.81,56.22 217.79,57.36"/>
    </edge>
    <edge id=":J7_w0" function="walkingarea">
        <lane id=":J7_w0_0" index="0" allow="pedestrian" speed="2.78" length="20.01" width="2.00" shape="197.51,71.37 197.47,73.37 217.48,73.75 217.52,71.75"/>
    </edge>
    <edge id=":J7_w1" function="walkingarea">
        <lane id=":J7_w1_0" index="0" allow="pedestrian" speed="2.78" length="19.99" width="2.50" shape="217.94,49.36 217.98,46.86 198.01,46.23 197.97,48.23"/>
    </edge>
    <edge id=":J8_w0" function="walkingarea">
        <lane id=":J8_w0_0" index="0" allow="pedestrian" speed="2.78" length="24.65" width="2.50" shape="404.81,75.24 404.77,77.24 405.28,50.34 405.23,52.84"/>
    </edge>
    <edge id=":J9_0" function="internal">
        <lane id=":J9_0_0" index="0" allow="bicycle" speed="13.89" length="40.45" width="2.00" shape="80.12,99.47 79.12,111.42 77.26,119.51 75.37,127.58 74.30,139.42"/>
        <lane id=":J9_0_1" index="1" disallow="pedestrian bicycle" speed="13.89" length="40.45" shape="77.52,99.42 76.52,111.36 74.66,119.45 72.77,127.52 71.70,139.35"/>
        <lane id=":J9_0_2" index="2" disallow="pedestrian bicycle" speed="13.89" length="40.45" shape="74.32,99.36 73.32,111.29 71.46,119.38 69.57,127.44 68.50,139.27"/>
    </edge>
    <edge id=":J9_3" function="internal">
        <lane id=":J9_3_0" index="0" allow="bicycle" speed="13.89" length="40.27" width="2.00" shape="56.30,138.97 55.43,99.01"/>
        <lane id=":J9_3_1" index="1" allow="bicycle" speed="13.89" length="40.27" width="2.00" shape="56.30,138.97 57.43,99.05"/>
        <lane id=":J9_3_2" index="2" disallow="pedestrian bicycle" speed="13.89" length="40.27" shape="58.90,139.03 60.03,99.10"/>
        <lane id=":J9_3_3" index="3" disallow="pedestrian bicycle" speed="13.89" length="40.27" shape="58.90,139.03 60.36,127.10 63.09,119.13 65.79,111.16 67.17,99.23"/>
        <lane id=":J9_3_4" index="4" disallow="pedestrian bicycle" speed="13.89" length="40.27" shape="62.10,139.11 63.22,99.16"/>
        <lane id=":J9_3_5" index="5" disallow="pedestrian bicycle" speed="13.89" length="40.27" shape="62.10,139.11 63.56,127.17 66.29,119.20 68.99,111.23 70.37,99.29"/>
    </edge>
    <edge id=":J9_w0" function="walkingarea">
        <lane id=":J9_w0_0" index="0" allow="pedestrian" speed="2.78" length="40.35" width="2.50" shape="75.30,139.44 77.80,139.51 83.12,99.53 81.12,99.49 80.59,108.06 79.56,114.33 78.26,119.47 76.95,124.60 75.88,130.88"/>
    </edge>
    <edge id=":J9_w1" function="walkingarea">
        <lane id=":J9_w1_0" index="0" allow="pedestrian" speed="2.78" length="39.96" width="2.00" shape="54.43,98.99 52.43,98.95 53.30,138.89 55.30,138.94"/>
    </edge>

    <edge id="-E10" from="J0" to="J11" priority="-1" type="edgeType_0">
        <lane id="-E10_0" index="0" allow="pedestrian" speed="13.89" length="16.64" width="2.00" shape="49.99,67.94 33.35,67.97"/>
        <lane id="-E10_1" index="1" allow="bicycle" speed="13.89" length="16.64" width="2.00" shape="49.98,65.94 33.34,65.97"/>
        <lane id="-E10_2" index="2" disallow="pedestrian bicycle" speed="13.89" length="16.64" shape="49.98,63.34 33.34,63.37"/>
        <lane id="-E10_3" index="3" disallow="pedestrian bicycle" speed="13.89" length="16.64" shape="49.97,60.14 33.33,60.17"/>
        <lane id="-E10_4" index="4" disallow="all" speed="13.89" length="16.64" width="0.75" shape="49.97,58.16 33.33,58.19"/>
    </edge>
    <edge id="-E11" from="J11" to="J2" priority="-1" type="edgeType_0">
        <lane id="-E11_0" index="0" allow="pedestrian" speed="13.89" length="78.47" width="2.00" shape="27.46,68.00 -51.01,68.75"/>
        <lane id="-E11_1" index="1" allow="bicycle" speed="13.89" length="78.47" width="2.00" shape="27.44,66.00 -51.03,66.75"/>
        <lane id="-E11_2" index="2" disallow="pedestrian bicycle" speed="13.89" length="78.47" shape="27.41,63.40 -51.05,64.15"/>
        <lane id="-E11_3" index="3" disallow="pedestrian bicycle" speed="13.89" length="78.47" shape="27.38,60.20 -51.08,60.95"/>
        <lane id="-E11_4" index="4" disallow="all" speed="13.89" length="78.47" width="0.75" shape="27.36,58.22 -51.10,58.98"/>
    </edge>
    <edge id="-E2" from="J3" to="J0" priority="-1">
        <lane id="-E2_0" index="0" allow="pedestrian" speed="13.89" length="8.24" width="2.00" shape="84.74,28.30 84.51,36.54"/>
        <lane id="-E2_1" index="1" allow="bicycle" speed="13.89" length="8.24" width="2.00" shape="82.74,28.25 82.51,36.48"/>
        <lane id="-E2_2" index="2" allow="bicycle" speed="13.89" length="8.24" width="2.00" shape="80.74,28.19 80.51,36.42"/>
        <lane id="-E2_3" index="3" disallow="pedestrian bicycle" speed="13.89" length="8.24" shape="78.14,28.12 77.91,36.35"/>
        <lane id="-E2_4" index="4" disallow="pedestrian bicycle" speed="13.89" length="8.24" shape="74.95,28.03 74.71,36.26"/>
        <lane id="-E2_5" index="5" disallow="all" speed="13.89" length="8.24" width="0.75" shape="72.97,27.97 72.74,36.20"/>
        <lane id="-E2_6" index="6" disallow="pedestrian bicycle" speed="13.89" length="8.24" shape="71.00,27.91 70.76,36.15"/>
    </edge>
    <edge id="-E4.52" from="J12" to="J3" priority="-1">
        <lane id="-E4.52_0" index="0" allow="pedestrian" speed="13.89" length="65.72" width="2.00" shape="82.67,-40.68 82.05,25.04"/>
        <lane id="-E4.52_1" index="1" allow="bicycle" speed="13.89" length="65.72" width="2.00" shape="80.67,-40.70 80.05,25.02"/>
        <lane id="-E4.52_2" index="2" disallow="pedestrian bicycle" speed="13.89" length="65.72" shape="78.07,-40.72 77.45,25.00"/>
        <lane id="-E4.52_3" index="3" disallow="pedestrian bicycle" speed="13.89" length="65.72" shape="74.87,-40.75 74.25,24.97"/>
        <lane id="-E4.52_4" index="4" disallow="pedestrian bicycle" speed="13.89" length="65.72" shape="71.67,-40.78 71.05,24.94"/>
    </edge>
    <edge id="-E5" from="J6" to="J0" priority="-1">